Version 4.1
SHEET 1 1680 680
WIRE 256 -64 16 -64
WIRE 752 -64 336 -64
WIRE 576 16 512 16
WIRE 16 64 16 -64
WIRE 512 64 512 16
WIRE 576 80 576 16
WIRE 752 80 752 -64
WIRE 752 80 576 80
WIRE 896 80 752 80
WIRE 896 144 896 80
WIRE 512 160 512 144
WIRE 576 176 576 80
WIRE 16 208 16 144
WIRE 16 208 -48 208
WIRE 128 208 16 208
WIRE 128 224 128 208
WIRE 896 256 896 224
WIRE 512 272 512 240
WIRE 576 272 576 240
WIRE 576 272 512 272
WIRE -48 352 -48 208
WIRE 128 400 128 304
WIRE 272 400 128 400
WIRE 576 400 576 272
WIRE 576 400 352 400
WIRE 704 400 576 400
WIRE 896 400 896 336
WIRE 896 400 784 400
WIRE -48 544 -48 432
WIRE -32 544 -48 544
WIRE 272 544 -32 544
WIRE 896 544 896 400
WIRE 896 544 352 544
WIRE -32 592 -32 544
FLAG 752 80 a
FLAG 576 400 b
FLAG 896 400 c
FLAG 16 -64 x
FLAG 128 400 y
FLAG -32 544 z
FLAG -32 592 0
SYMBOL voltage 16 48 R0
WINDOW 123 0 0 Left 0
WINDOW 39 0 0 Left 0
SYMATTR InstName Va
SYMATTR Value SINE(0 179.6 60 0 0 0)
SYMBOL voltage 128 320 R180
WINDOW 0 24 96 Left 2
WINDOW 3 24 16 Left 2
WINDOW 123 0 0 Left 0
WINDOW 39 0 0 Left 0
SYMATTR InstName Vb
SYMATTR Value SINE(0 179.6 60 0 0 120)
SYMBOL voltage -48 448 R180
WINDOW 0 24 96 Left 2
WINDOW 3 24 16 Left 2
WINDOW 123 0 0 Left 0
WINDOW 39 0 0 Left 0
SYMATTR InstName Vc
SYMATTR Value SINE(0 179.6 60 0 0 -120)
SYMBOL res 352 -80 R90
WINDOW 0 0 56 VBottom 2
WINDOW 3 32 56 VTop 2
SYMATTR InstName RtesteM
SYMATTR Value 1
SYMBOL res 368 384 R90
WINDOW 0 0 56 VBottom 2
WINDOW 3 32 56 VTop 2
SYMATTR InstName RtesteN
SYMATTR Value 1
SYMBOL res 368 528 R90
WINDOW 0 0 56 VBottom 2
WINDOW 3 32 56 VTop 2
SYMATTR InstName RtesteP
SYMATTR Value 1
SYMBOL res 800 384 R90
WINDOW 0 0 56 VBottom 2
WINDOW 3 32 56 VTop 2
SYMATTR InstName Rc
SYMATTR Value 484
SYMBOL cap 560 176 R0
SYMATTR InstName C1
SYMATTR Value 21.8µ
SYMBOL res 496 48 R0
SYMATTR InstName R3
SYMATTR Value 210.4
SYMBOL res 528 256 R180
WINDOW 0 36 76 Left 2
WINDOW 3 36 40 Left 2
SYMATTR InstName R2
SYMATTR Value 212.8
SYMBOL res 880 128 R0
SYMATTR InstName R1
SYMATTR Value 21.5
SYMBOL ind 880 240 R0
SYMATTR InstName L1
SYMATTR Value 21.5
TEXT 1232 -176 Left 2 ;TENSÕES NA CARGA
TEXT 1184 -144 Left 2 !.meas Vab RMS V(a)-V(b)\n.meas Vbc RMS V(b)-V(c)\n.meas Vca RMS V(c)-V(a)
TEXT 1280 -32 Left 2 ;CORRENTES
TEXT 1104 0 Left 2 ;FASE
TEXT 944 32 Left 2 !.meas Iab RMS I(C1)\n.meas Ibc RMS I(R1)\n.meas Ica RMS I(Rc)
TEXT 1448 -8 Left 2 ;LINHA
TEXT 1384 16 Left 2 !.meas Ia RMS I(RtesteM)\n.meas Ib RMS I(RtesteN)\n.meas Ic RMS I(RtesteP)
TEXT 1256 128 Left 2 !.tran 0.1666 0.0833
