Version 4.1
SHEET 1 1132 788
WIRE -288 16 -352 16
WIRE -64 16 -208 16
WIRE -16 16 -64 16
WIRE 144 16 64 16
WIRE 656 16 272 16
WIRE -352 48 -352 16
WIRE 144 96 48 96
WIRE 320 96 272 96
WIRE -288 208 -352 208
WIRE -192 208 -208 208
WIRE 48 208 48 96
WIRE 48 208 -112 208
WIRE 144 208 48 208
WIRE 512 208 272 208
WIRE -352 224 -352 208
WIRE 144 288 48 288
WIRE 320 288 320 96
WIRE 320 288 272 288
WIRE -288 384 -352 384
WIRE -160 384 -208 384
WIRE 48 384 48 288
WIRE 48 384 -80 384
WIRE 144 384 48 384
WIRE 368 384 272 384
WIRE -352 400 -352 384
WIRE -64 464 -64 16
WIRE 144 464 -64 464
WIRE 320 464 320 288
WIRE 320 464 272 464
WIRE 368 480 368 384
WIRE 512 480 512 208
WIRE 656 480 656 16
WIRE 320 528 320 464
WIRE 368 640 368 560
WIRE 512 640 512 560
WIRE 656 640 656 560
WIRE 368 768 368 704
WIRE 512 768 512 704
WIRE 656 768 656 704
FLAG -352 48 0
FLAG -352 224 0
FLAG -352 400 0
FLAG 368 768 0
FLAG 512 768 0
FLAG 656 768 0
FLAG 320 528 0
SYMBOL ind 128 0 R0
SYMATTR InstName Lp
SYMATTR Value 9m
SYMBOL ind 288 112 R180
WINDOW 0 36 80 Left 2
WINDOW 3 36 40 Left 2
SYMATTR InstName Ls
SYMATTR Value 1m
SYMBOL voltage -192 16 R90
WINDOW 0 -32 56 VBottom 2
WINDOW 3 32 56 VTop 2
WINDOW 123 0 0 Left 0
WINDOW 39 0 0 Left 0
SYMATTR InstName V1
SYMATTR Value SINE(0 636.4 60 0 0 0)
SYMBOL ind 128 192 R0
SYMATTR InstName Lp1
SYMATTR Value 9m
SYMBOL ind 128 368 R0
SYMATTR InstName Lp2
SYMATTR Value 9m
SYMBOL voltage -192 208 R90
WINDOW 0 -32 56 VBottom 2
WINDOW 3 32 56 VTop 2
WINDOW 123 0 0 Left 0
WINDOW 39 0 0 Left 0
SYMATTR InstName V2
SYMATTR Value SINE(0 636.4 60 0 0 -120)
SYMBOL voltage -192 384 R90
WINDOW 0 -32 56 VBottom 2
WINDOW 3 32 56 VTop 2
WINDOW 123 0 0 Left 0
WINDOW 39 0 0 Left 0
SYMATTR InstName V3
SYMATTR Value SINE(0 636.4 60 0 0 120)
SYMBOL res 80 0 R90
WINDOW 0 0 56 VBottom 2
WINDOW 3 32 56 VTop 2
SYMATTR InstName R1
SYMATTR Value 1
SYMBOL res -96 192 R90
WINDOW 0 0 56 VBottom 2
WINDOW 3 32 56 VTop 2
SYMATTR InstName R2
SYMATTR Value 1
SYMBOL res -64 368 R90
WINDOW 0 0 56 VBottom 2
WINDOW 3 32 56 VTop 2
SYMATTR InstName R3
SYMATTR Value 1
SYMBOL ind 288 304 R180
WINDOW 0 36 80 Left 2
WINDOW 3 36 40 Left 2
SYMATTR InstName Ls1
SYMATTR Value 1m
SYMBOL ind 288 480 R180
WINDOW 0 36 80 Left 2
WINDOW 3 36 40 Left 2
SYMATTR InstName Ls2
SYMATTR Value 1m
SYMBOL res 352 464 R0
SYMATTR InstName R4
SYMATTR Value 8
SYMBOL res 496 464 R0
SYMATTR InstName R5
SYMATTR Value 8
SYMBOL res 640 464 R0
SYMATTR InstName R6
SYMATTR Value 8
SYMBOL cap 352 640 R0
SYMATTR InstName C1
SYMATTR Value 442µ
SYMBOL cap 496 640 R0
SYMATTR InstName C2
SYMATTR Value 442µ
SYMBOL cap 640 640 R0
SYMATTR InstName C3
SYMATTR Value 442µ
TEXT -336 -112 Left 2 !.tran 0.1666 0.0833
TEXT 160 -104 Left 2 !K1 Lp Ls 1\nK2 Lp1 Ls1 1\nK3 Lp2 Ls2 1
TEXT 832 96 Left 2 !.meas I1RMS RMS I(R1)\n.meas I2RMS RMS I(R2)\n.meas I3RMS RMS I(R3)\n.meas I4RMS RMS I(R4)\n.meas I5RMS RMS I(R5)\n.meas I6RMS RMS I(R6)
