Version 4.1
SHEET 1 1492 680
WIRE 96 32 0 32
WIRE 384 32 176 32
WIRE 640 32 384 32
WIRE 832 32 640 32
WIRE 0 96 0 32
WIRE 384 96 384 32
WIRE 832 96 832 32
WIRE 640 112 640 32
WIRE 0 272 0 176
WIRE 384 272 384 176
WIRE 384 272 0 272
WIRE 640 272 640 176
WIRE 640 272 384 272
WIRE 832 272 832 176
WIRE 832 272 640 272
WIRE 384 320 384 272
FLAG 384 320 0
FLAG 0 32 A
FLAG 384 32 B
SYMBOL voltage 0 80 R0
WINDOW 123 0 0 Left 0
WINDOW 39 0 0 Left 0
SYMATTR InstName V1
SYMATTR Value SINE(0 173.50 60)
SYMBOL ind 80 48 R270
WINDOW 0 32 56 VTop 2
WINDOW 3 5 56 VBottom 2
SYMATTR InstName L1
SYMATTR Value 9.6m
SYMBOL res 368 80 R0
SYMATTR InstName R1
SYMATTR Value 210
SYMBOL cap 624 112 R0
SYMATTR InstName C1
SYMATTR Value 23.7µ
SYMBOL res 816 80 R0
SYMATTR InstName R2
SYMATTR Value 207.7
TEXT 1008 -16 Left 2 !.meas VR1 RMS V(B)\n.meas VC1 RMS V(B)\n.meas VR2 RMS V(B)\n.meas VL1 RMS V(A) - V(B)
TEXT 1016 136 Left 2 !.meas IL1 RMS I(L1)\n.meas IR1 RMS I(R1)\n.meas IC1 RMS I(C1)\n.meas IR2 RMS I(R2)
TEXT 1032 296 Left 2 !.tran 0.1666 0.0833
