Version 4
SHEET 1 1612 680
WIRE 288 16 -48 16
WIRE 480 16 288 16
WIRE 768 16 480 16
WIRE 480 48 480 16
WIRE -48 96 -48 16
WIRE 768 96 768 16
WIRE 768 96 688 96
WIRE 832 96 768 96
WIRE 288 112 288 16
WIRE 688 144 688 96
WIRE 480 160 480 128
WIRE 832 160 832 96
WIRE 480 176 480 160
WIRE 688 240 688 224
WIRE 784 240 688 240
WIRE 832 240 832 224
WIRE 832 240 784 240
WIRE -48 288 -48 176
WIRE 288 288 288 192
WIRE 288 288 -48 288
WIRE 480 288 480 256
WIRE 480 288 288 288
WIRE 784 288 784 240
WIRE 784 288 480 288
WIRE 288 320 288 288
FLAG 288 320 0
FLAG 480 160 x
FLAG 480 16 i
SYMBOL voltage -48 80 R0
WINDOW 123 0 0 Left 0
WINDOW 39 0 0 Left 0
SYMATTR InstName Vo
SYMATTR Value SINE(0 {Vo} {fo})
SYMBOL res 272 96 R0
SYMATTR InstName Ra
SYMATTR Value {Ra}
SYMBOL res 464 32 R0
SYMATTR InstName Rb
SYMATTR Value {Rb}
SYMBOL ind 464 160 R0
SYMATTR InstName Lo
SYMATTR Value {Lo}
SYMBOL res 672 128 R0
SYMATTR InstName Rc
SYMATTR Value {Rc}
SYMBOL cap 816 160 R0
SYMATTR InstName Co
SYMATTR Value {Co}
TEXT -56 408 Left 2 !.param Vo = 65 fo = 60 Ra = 100 Rb = 100 Rc = 100 Lo = 21.5m Co = 28u
TEXT -56 448 Left 2 !.tran 0 0.1666 0.0833
TEXT 920 -176 Left 2 !.meas VRaRMS RMS V(i)\n.meas VRbRMS RMS V(i) - V(x)\n.meas VRcRMS RMS V(i)\n.meas VLoRMS RMS V(i)\n.meas VCoRMS RMS V(i)
TEXT 1312 -184 Left 2 !.meas IRaRMS RMS I(Ra)\n.meas IRbRMS RMS I(Rb)\n.meas IRcRMS RMS I(Rc)\n.meas ILoRMS RMS I(Lo)\n.meas ICoRMS RMS I(Co)
